9
	Energy:      26.5146849
C         -1.19192        0.78685       -0.04035
C         -0.20832        1.95038       -0.00300
C          0.93133        0.93911        0.03169
O         -0.06002       -0.11641       -0.00552
H          1.51045        0.92998        0.95617
H          1.57132        0.93655       -0.85179
H         -1.76396        0.69737       -0.96495
H         -1.82483        0.69080        0.84301
O         -0.29505        3.15907       -0.00153
